LAMMPS (7 Feb 2024 - Development - patch_7Feb2024_update1-306-gf3391199e7-modified)
# Tethered nanorods

atom_style	molecular

read_data	data.rigid.tnr
Reading data file ...
  orthogonal box = (-31.122 -31.122 -31.122) to (31.122 31.122 31.122)
  reading atoms ...
  5600 atoms
  scanning bonds ...
  reading bonds ...
  1600 bonds
Finding 1-2 1-3 1-4 neighbors ...
     2 = max # of 1-2 neighbors
     1 = max # of 1-3 neighbors
     1 = max # of 1-4 neighbors
     2 = max # of special neighbors

# Specify bond parameters

bond_style	fene
bond_coeff	1 30.0 1.5 1.0 1.0

special_bonds	fene
Finding 1-2 1-3 1-4 neighbors ...
     2 = max # of 1-2 neighbors
     2 = max # of special neighbors

# Specify initial velocities

velocity	all create 1.4 109345

# Specify rigid components

group		rods type 2
4000 atoms in group rods
group		tethers	subtract all rods
1600 atoms in group tethers

neigh_modify 	exclude	molecule/intra rods delay 0 every 1

# Specify the pair potentials

pair_style	lj/cut	2.5
pair_modify	shift	yes
pair_coeff	* * 1.0	1.0 1.122
pair_coeff	2 2 1.0 1.0 2.5

# Specify output

thermo	100
thermo_style custom step temp pe etotal press enthalpy lx ly lz pxx pyy pzz
thermo_modify flush yes lost warn

timestep	0.005

fix	1	rods	rigid molecule
  800 rigid bodies with 4000 atoms
fix	2	tethers	nve
fix	3	all	langevin 1.4 1.4 1.0 437624

run	5000
Generated 0 of 1 mixed pair_coeff terms from geometric mixing rule
Step          Temp          PotEng         TotEng         Press         Enthalpy          Lx             Ly             Lz            Pxx            Pyy            Pzz
0   1.3963219      5.9478449      7.0445809      0.048565317    9.13595        62.244         62.244         62.244         0.0091983659   0.11850113     0.017996458
Averages over the last 26 of 51 rows, steps 2500 to 5000:
Temp PotEng TotEng Press Enthalpy Lx Ly Lz Pxx Pyy Pzz
1.41363 5.91358 7.02391 0.00415867 7.203 62.244 62.244 62.244 0.00462327 0.00337568 0.00447706
Loop time of 5.54157 on 1 procs for 5000 steps with 5600 atoms

# Replace fix rigid and fix langevin with new ones

unfix	1
unfix	3

fix	3	tethers langevin 1.4 1.4 1.0 198450

# Test different integrators for rods

fix	1 rods	rigid/nve molecule
  800 rigid bodies with 4000 atoms
print 	"rigid/nve"
rigid/nve
run	1000
Generated 0 of 1 mixed pair_coeff terms from geometric mixing rule
Step          Temp          PotEng         TotEng         Press         Enthalpy          Lx             Ly             Lz            Pxx            Pyy            Pzz
5000   1.4279632      5.9111567      7.0327453      0.027874409    8.2331015      62.244         62.244         62.244         0.018992956    0.039655696    0.024974575
Averages over the last 6 of 11 rows, steps 5500 to 6000:
Temp PotEng TotEng Press Enthalpy Lx Ly Lz Pxx Pyy Pzz
1.41475 5.88699 6.9982 0.00345694 7.14706 62.244 62.244 62.244 0.00230301 0.00381651 0.0042513
Loop time of 1.21399 on 1 procs for 1000 steps with 5600 atoms

unfix	1

fix	1 rods	rigid/nvt molecule temp 1.4 1.4 1.0
  800 rigid bodies with 4000 atoms
print 	"rigid/nvt"
rigid/nvt
run	1000
Generated 0 of 1 mixed pair_coeff terms from geometric mixing rule
Step          Temp          PotEng         TotEng         Press         Enthalpy          Lx             Ly             Lz            Pxx            Pyy            Pzz
6000   1.4322812      5.8903503      7.0153305      0.012984296    7.5744734      62.244         62.244         62.244         0.058323772    0.007366828   -0.026737713
Averages over the last 6 of 11 rows, steps 6500 to 7000:
Temp PotEng TotEng Press Enthalpy Lx Ly Lz Pxx Pyy Pzz
1.39144 5.88917 6.98207 0.00403506 7.15584 62.244 62.244 62.244 0.00464434 0.00445926 0.00300158
Loop time of 1.16587 on 1 procs for 1000 steps with 5600 atoms

unfix	1

compute	myTemp all temp

fix	1 rods	rigid/npt molecule temp 1.4 1.4 1.0 iso 0.05 0.05 1.0         dilate all
  800 rigid bodies with 4000 atoms
print 	"rigid/npt iso"
rigid/npt iso
fix_modify 1 temp myTemp

run	1000
Generated 0 of 1 mixed pair_coeff terms from geometric mixing rule
Step          Temp          PotEng         TotEng         Press         Enthalpy          Lx             Ly             Lz            Pxx            Pyy            Pzz
7000   1.4256345      5.8979889      7.0177485      0.030670312    8.3385046      62.244         62.244         62.244         0.019152979    0.028037341    0.044820616
Averages over the last 6 of 11 rows, steps 7500 to 8000:
Temp PotEng TotEng Press Enthalpy Lx Ly Lz Pxx Pyy Pzz
1.53419 5.6186 6.82362 0.043224 7.14206 34.9322 34.9322 34.9322 0.0426388 0.0483761 0.0386571
Loop time of 2.49405 on 1 procs for 1000 steps with 5600 atoms

unfix	1

fix	1 rods	rigid/npt molecule temp 1.4 1.4 1.0 x 0.05 0.05 1.0 dilate all
  800 rigid bodies with 4000 atoms
print 	"rigid/npt x"
rigid/npt x
run	1000
Generated 0 of 1 mixed pair_coeff terms from geometric mixing rule
Step          Temp          PotEng         TotEng         Press         Enthalpy          Lx             Ly             Lz            Pxx            Pyy            Pzz
8000   1.5105319      5.5459012      6.7323431     -0.15611622     5.8056235      32.153588      32.153588      32.153588     -0.25823552     0.036861264   -0.24697441
Averages over the last 6 of 11 rows, steps 8500 to 9000:
Temp PotEng TotEng Press Enthalpy Lx Ly Lz Pxx Pyy Pzz
1.4146 5.4113 6.52239 0.047677 6.77509 28.5851 32.1536 32.1536 0.0610887 0.0345914 0.0473509
Loop time of 2.35076 on 1 procs for 1000 steps with 5600 atoms

unfix	1

fix	1 rods	rigid/nph molecule iso 0.05 0.05 1.0 dilate all
  800 rigid bodies with 4000 atoms
print 	"rigid/nph iso"
rigid/nph iso
run	1000
Generated 0 of 1 mixed pair_coeff terms from geometric mixing rule
Step          Temp          PotEng         TotEng         Press         Enthalpy          Lx             Ly             Lz            Pxx            Pyy            Pzz
9000   1.4188356      5.3687142      6.4831335      0.066940268    6.8197402      27.237322      32.153588      32.153588      0.020750172    0.14461869     0.035451941
Averages over the last 6 of 11 rows, steps 9500 to 10000:
Temp PotEng TotEng Press Enthalpy Lx Ly Lz Pxx Pyy Pzz
1.4642 5.27477 6.42482 0.0318126 6.56542 26.1344 30.8516 30.8516 0.0400741 0.0149187 0.0404451
Loop time of 2.42718 on 1 procs for 1000 steps with 5600 atoms

unfix	1

fix	1 rods	rigid/nph molecule x 0.05 0.05 1.0 y 0.05 0.05 1.0         couple xy dilate all
  800 rigid bodies with 4000 atoms
print 	"rigid/nph xy couple"
rigid/nph xy couple
run	1000
Generated 0 of 1 mixed pair_coeff terms from geometric mixing rule
Step          Temp          PotEng         TotEng         Press         Enthalpy          Lx             Ly             Lz            Pxx            Pyy            Pzz
10000   1.4437445      5.2626116      6.3965955      0.043852305    6.5894123      26.045744      30.746933      30.746933     -0.10594451    -0.016019605    0.25352103
Averages over the last 6 of 11 rows, steps 10500 to 11000:
Temp PotEng TotEng Press Enthalpy Lx Ly Lz Pxx Pyy Pzz
1.46078 5.19075 6.33812 0.0464121 6.53401 25.6153 30.2388 30.7469 0.0583327 0.0368341 0.0440696
Loop time of 2.55647 on 1 procs for 1000 steps with 5600 atoms
